<?xml version="1.0" encoding="UTF-8"?>

<!-- generated on 2025-05-04 12:52:55 by Eclipse SUMO netconvert Version 1.22.0
<netconvertConfiguration xmlns:xsi="http://www.w3.org/2001/XMLSchema-instance" xsi:noNamespaceSchemaLocation="http://sumo.dlr.de/xsd/netconvertConfiguration.xsd">

    <input>
        <osm-files value="bangalore.osm"/>
    </input>

    <output>
        <output-file value="bangalore.net.xml"/>
    </output>

    <projection>
        <proj.utm value="true"/>
    </projection>

</netconvertConfiguration>
-->

<net version="1.20" junctionCornerDetail="5" limitTurnSpeed="5.50" xmlns:xsi="http://www.w3.org/2001/XMLSchema-instance" xsi:noNamespaceSchemaLocation="http://sumo.dlr.de/xsd/net_file.xsd">

    <location netOffset="-783205.57,-1442417.53" convBoundary="0.00,0.00,337.98,812.30" origBoundary="77.611167,13.034570,77.614305,13.041908" projParameter="+proj=utm +zone=43 +ellps=WGS84 +datum=WGS84 +units=m +no_defs"/>

    <type id="highway.residential" priority="3" numLanes="1" speed="13.89" disallow="tram rail_urban rail rail_electric rail_fast ship container cable_car subway aircraft wheelchair scooter drone" oneway="0"/>
    <type id="highway.tertiary" priority="10" numLanes="1" speed="22.22" disallow="tram rail_urban rail rail_electric rail_fast ship container cable_car subway aircraft wheelchair scooter drone" oneway="0"/>

    <edge id=":10091596938_0" function="internal">
        <lane id=":10091596938_0_0" index="0" disallow="tram rail_urban rail rail_electric rail_fast ship container cable_car subway aircraft wheelchair scooter drone" speed="3.65" length="4.67" shape="186.55,183.75 185.19,183.25 184.62,182.56 184.82,181.69 185.81,180.64"/>
    </edge>
    <edge id=":10091596939_0" function="internal">
        <lane id=":10091596939_0_0" index="0" disallow="tram rail_urban rail rail_electric rail_fast ship container cable_car subway aircraft wheelchair scooter drone" speed="6.37" length="9.04" shape="276.90,168.06 276.13,165.68 274.79,164.17 272.87,163.53 270.38,163.76"/>
    </edge>
    <edge id=":10091596939_1" function="internal">
        <lane id=":10091596939_1_0" index="0" disallow="tram rail_urban rail rail_electric rail_fast ship container cable_car subway aircraft wheelchair scooter drone" speed="22.22" length="14.41" shape="276.90,168.06 274.47,153.85"/>
    </edge>
    <edge id=":10091596939_2" function="internal">
        <lane id=":10091596939_2_0" index="0" disallow="tram rail_urban rail rail_electric rail_fast ship container cable_car subway aircraft wheelchair scooter drone" speed="3.65" length="1.44" shape="276.90,168.06 277.48,166.74"/>
    </edge>
    <edge id=":10091596939_9" function="internal">
        <lane id=":10091596939_9_0" index="0" disallow="tram rail_urban rail rail_electric rail_fast ship container cable_car subway aircraft wheelchair scooter drone" speed="3.65" length="3.23" shape="277.48,166.74 278.20,166.21 279.06,166.47 280.05,167.52"/>
    </edge>
    <edge id=":10091596939_3" function="internal">
        <lane id=":10091596939_3_0" index="0" disallow="tram rail_urban rail rail_electric rail_fast ship container cable_car subway aircraft wheelchair scooter drone" speed="22.22" length="14.41" shape="277.62,153.31 280.05,167.52"/>
    </edge>
    <edge id=":10091596939_4" function="internal">
        <lane id=":10091596939_4_0" index="0" disallow="tram rail_urban rail rail_electric rail_fast ship container cable_car subway aircraft wheelchair scooter drone" speed="8.22" length="3.96" shape="277.62,153.31 277.71,157.11 277.65,157.26"/>
    </edge>
    <edge id=":10091596939_5" function="internal">
        <lane id=":10091596939_5_0" index="0" disallow="tram rail_urban rail rail_electric rail_fast ship container cable_car subway aircraft wheelchair scooter drone" speed="3.65" length="1.44" shape="277.62,153.31 277.04,154.63"/>
    </edge>
    <edge id=":10091596939_10" function="internal">
        <lane id=":10091596939_10_0" index="0" disallow="tram rail_urban rail rail_electric rail_fast ship container cable_car subway aircraft wheelchair scooter drone" speed="8.22" length="10.33" shape="277.65,157.26 276.53,160.11 274.09,162.33 270.38,163.76"/>
    </edge>
    <edge id=":10091596939_11" function="internal">
        <lane id=":10091596939_11_0" index="0" disallow="tram rail_urban rail rail_electric rail_fast ship container cable_car subway aircraft wheelchair scooter drone" speed="3.65" length="3.23" shape="277.04,154.63 276.32,155.16 275.46,154.90 274.47,153.85"/>
    </edge>
    <edge id=":10091596939_6" function="internal">
        <lane id=":10091596939_6_0" index="0" disallow="tram rail_urban rail rail_electric rail_fast ship container cable_car subway aircraft wheelchair scooter drone" speed="6.77" length="9.37" shape="269.64,160.64 272.10,159.70 273.73,158.26 274.52,156.31 274.47,153.85"/>
    </edge>
    <edge id=":10091596939_7" function="internal">
        <lane id=":10091596939_7_0" index="0" disallow="tram rail_urban rail rail_electric rail_fast ship container cable_car subway aircraft wheelchair scooter drone" speed="7.89" length="14.45" shape="269.64,160.64 273.62,160.28 276.68,161.30 278.82,163.72 280.05,167.52"/>
    </edge>
    <edge id=":10091596939_8" function="internal">
        <lane id=":10091596939_8_0" index="0" disallow="tram rail_urban rail rail_electric rail_fast ship container cable_car subway aircraft wheelchair scooter drone" speed="3.65" length="4.67" shape="269.64,160.64 270.99,161.14 271.57,161.83 271.37,162.70 270.38,163.76"/>
    </edge>
    <edge id=":10091596942_0" function="internal">
        <lane id=":10091596942_0_0" index="0" disallow="tram rail_urban rail rail_electric rail_fast ship container cable_car subway aircraft wheelchair scooter drone" speed="3.65" length="4.67" shape="149.09,129.54 149.62,128.20 150.31,127.64 151.18,127.86 152.22,128.86"/>
    </edge>
    <edge id=":11010187848_0" function="internal">
        <lane id=":11010187848_0_0" index="0" disallow="tram rail_urban rail rail_electric rail_fast ship container cable_car subway aircraft wheelchair scooter drone" speed="3.65" length="4.67" shape="116.35,214.16 116.75,212.78 117.40,212.15 118.28,212.30 119.40,213.20"/>
    </edge>
    <edge id=":11010187851_0" function="internal">
        <lane id=":11010187851_0_0" index="0" disallow="tram rail_urban rail rail_electric rail_fast ship container cable_car subway aircraft wheelchair scooter drone" speed="13.89" length="8.84" shape="128.45,225.07 119.79,226.84"/>
    </edge>
    <edge id=":11010187851_1" function="internal">
        <lane id=":11010187851_1_0" index="0" disallow="tram rail_urban rail rail_electric rail_fast ship container cable_car subway aircraft wheelchair scooter drone" speed="8.36" length="3.90" shape="128.45,225.07 124.71,225.26 124.56,225.21"/>
    </edge>
    <edge id=":11010187851_2" function="internal">
        <lane id=":11010187851_2_0" index="0" disallow="tram rail_urban rail rail_electric rail_fast ship container cable_car subway aircraft wheelchair scooter drone" speed="3.65" length="1.44" shape="128.45,225.07 127.11,224.53"/>
    </edge>
    <edge id=":11010187851_9" function="internal">
        <lane id=":11010187851_9_0" index="0" disallow="tram rail_urban rail rail_electric rail_fast ship container cable_car subway aircraft wheelchair scooter drone" speed="8.36" length="10.44" shape="124.56,225.21 121.66,224.18 119.29,221.81 117.61,218.17"/>
    </edge>
    <edge id=":11010187851_10" function="internal">
        <lane id=":11010187851_10_0" index="0" disallow="tram rail_urban rail rail_electric rail_fast ship container cable_car subway aircraft wheelchair scooter drone" speed="3.65" length="3.23" shape="127.11,224.53 126.56,223.82 126.80,222.96 127.81,221.94"/>
    </edge>
    <edge id=":11010187851_3" function="internal">
        <lane id=":11010187851_3_0" index="0" disallow="tram rail_urban rail rail_electric rail_fast ship container cable_car subway aircraft wheelchair scooter drone" speed="6.93" length="9.56" shape="120.66,217.22 121.79,219.69 123.36,221.30 125.37,222.05 127.81,221.94"/>
    </edge>
    <edge id=":11010187851_4" function="internal">
        <lane id=":11010187851_4_0" index="0" disallow="tram rail_urban rail rail_electric rail_fast ship container cable_car subway aircraft wheelchair scooter drone" speed="6.78" length="10.64" shape="120.66,217.22 121.65,221.14 121.83,224.05 121.21,225.96 119.79,226.84"/>
    </edge>
    <edge id=":11010187851_5" function="internal">
        <lane id=":11010187851_5_0" index="0" disallow="tram rail_urban rail rail_electric rail_fast ship container cable_car subway aircraft wheelchair scooter drone" speed="3.65" length="4.67" shape="120.66,217.22 120.26,218.60 119.61,219.22 118.73,219.08 117.61,218.17"/>
    </edge>
    <edge id=":11010187851_6" function="internal">
        <lane id=":11010187851_6_0" index="0" disallow="tram rail_urban rail rail_electric rail_fast ship container cable_car subway aircraft wheelchair scooter drone" speed="5.24" length="5.89" shape="119.14,223.71 119.35,222.89 118.85,221.22 118.11,219.41 117.61,218.17"/>
    </edge>
    <edge id=":11010187851_7" function="internal">
        <lane id=":11010187851_7_0" index="0" disallow="tram rail_urban rail rail_electric rail_fast ship container cable_car subway aircraft wheelchair scooter drone" speed="13.89" length="8.86" shape="119.14,223.71 127.81,221.94"/>
    </edge>
    <edge id=":11010187851_8" function="internal">
        <lane id=":11010187851_8_0" index="0" disallow="tram rail_urban rail rail_electric rail_fast ship container cable_car subway aircraft wheelchair scooter drone" speed="3.65" length="1.44" shape="119.14,223.71 120.47,224.25"/>
    </edge>
    <edge id=":11010187851_11" function="internal">
        <lane id=":11010187851_11_0" index="0" disallow="tram rail_urban rail rail_electric rail_fast ship container cable_car subway aircraft wheelchair scooter drone" speed="3.65" length="3.23" shape="120.47,224.25 121.03,224.95 120.80,225.82 119.79,226.84"/>
    </edge>
    <edge id=":1156302894_0" function="internal">
        <lane id=":1156302894_0_0" index="0" disallow="tram rail_urban rail rail_electric rail_fast ship container cable_car subway aircraft wheelchair scooter drone" speed="6.19" length="9.05" shape="331.76,459.76 330.85,457.39 329.42,456.00 327.48,455.61 325.01,456.21"/>
    </edge>
    <edge id=":1156302894_1" function="internal">
        <lane id=":1156302894_1_0" index="0" disallow="tram rail_urban rail rail_electric rail_fast ship container cable_car subway aircraft wheelchair scooter drone" speed="22.22" length="14.36" shape="331.76,459.76 330.99,456.19 330.31,452.72 329.73,449.24 329.24,445.62"/>
    </edge>
    <edge id=":1156302894_2" function="internal">
        <lane id=":1156302894_2_0" index="0" disallow="tram rail_urban rail rail_electric rail_fast ship container cable_car subway aircraft wheelchair scooter drone" speed="3.65" length="1.44" shape="331.76,459.76 332.28,458.41"/>
    </edge>
    <edge id=":1156302894_9" function="internal">
        <lane id=":1156302894_9_0" index="0" disallow="tram rail_urban rail rail_electric rail_fast ship container cable_car subway aircraft wheelchair scooter drone" speed="3.65" length="3.23" shape="332.28,458.41 332.97,457.84 333.84,458.06 334.88,459.05"/>
    </edge>
    <edge id=":1156302894_3" function="internal">
        <lane id=":1156302894_3_0" index="0" disallow="tram rail_urban rail rail_electric rail_fast ship container cable_car subway aircraft wheelchair scooter drone" speed="22.22" length="14.04" shape="332.41,445.23 332.90,448.80 333.46,452.17 334.12,455.53 334.88,459.05"/>
    </edge>
    <edge id=":1156302894_4" function="internal">
        <lane id=":1156302894_4_0" index="0" disallow="tram rail_urban rail rail_electric rail_fast ship container cable_car subway aircraft wheelchair scooter drone" speed="8.93" length="3.67" shape="332.41,445.23 332.30,448.78 332.25,448.90"/>
    </edge>
    <edge id=":1156302894_5" function="internal">
        <lane id=":1156302894_5_0" index="0" disallow="tram rail_urban rail rail_electric rail_fast ship container cable_car subway aircraft wheelchair scooter drone" speed="3.65" length="1.44" shape="332.41,445.23 331.76,446.52"/>
    </edge>
    <edge id=":1156302894_10" function="internal">
        <lane id=":1156302894_10_0" index="0" disallow="tram rail_urban rail rail_electric rail_fast ship container cable_car subway aircraft wheelchair scooter drone" speed="8.93" length="10.70" shape="332.25,448.90 331.03,451.80 328.60,454.27 325.01,456.21"/>
    </edge>
    <edge id=":1156302894_11" function="internal">
        <lane id=":1156302894_11_0" index="0" disallow="tram rail_urban rail rail_electric rail_fast ship container cable_car subway aircraft wheelchair scooter drone" speed="3.65" length="3.23" shape="331.76,446.52 331.02,447.02 330.18,446.72 329.24,445.62"/>
    </edge>
    <edge id=":1156302894_6" function="internal">
        <lane id=":1156302894_6_0" index="0" disallow="tram rail_urban rail rail_electric rail_fast ship container cable_car subway aircraft wheelchair scooter drone" speed="7.58" length="10.13" shape="323.82,453.24 326.43,451.85 328.20,450.12 329.14,448.05 329.24,445.62"/>
    </edge>
    <edge id=":1156302894_7" function="internal">
        <lane id=":1156302894_7_0" index="0" disallow="tram rail_urban rail rail_electric rail_fast ship container cable_car subway aircraft wheelchair scooter drone" speed="7.75" length="14.83" shape="323.82,453.24 327.86,452.26 331.05,452.90 333.39,455.17 334.88,459.05"/>
    </edge>
    <edge id=":1156302894_8" function="internal">
        <lane id=":1156302894_8_0" index="0" disallow="tram rail_urban rail rail_electric rail_fast ship container cable_car subway aircraft wheelchair scooter drone" speed="3.65" length="4.67" shape="323.82,453.24 325.23,453.54 325.90,454.13 325.83,455.02 325.01,456.21"/>
    </edge>
    <edge id=":1160646219_0" function="internal">
        <lane id=":1160646219_0_0" index="0" disallow="tram rail_urban rail rail_electric rail_fast ship container cable_car subway aircraft wheelchair scooter drone" speed="6.51" length="8.95" shape="281.66,191.20 280.66,188.96 279.18,187.58 277.23,187.04 274.80,187.35"/>
    </edge>
    <edge id=":1160646219_1" function="internal">
        <lane id=":1160646219_1_0" index="0" disallow="tram rail_urban rail rail_electric rail_fast ship container cable_car subway aircraft wheelchair scooter drone" speed="22.22" length="14.12" shape="281.66,191.20 280.70,187.71 279.88,184.37 279.15,181.00 278.50,177.44"/>
    </edge>
    <edge id=":1160646219_2" function="internal">
        <lane id=":1160646219_2_0" index="0" disallow="tram rail_urban rail rail_electric rail_fast ship container cable_car subway aircraft wheelchair scooter drone" speed="3.65" length="1.44" shape="281.66,191.20 282.10,189.82"/>
    </edge>
    <edge id=":1160646219_9" function="internal">
        <lane id=":1160646219_9_0" index="0" disallow="tram rail_urban rail rail_electric rail_fast ship container cable_car subway aircraft wheelchair scooter drone" speed="3.65" length="3.23" shape="282.10,189.82 282.76,189.22 283.64,189.38 284.74,190.31"/>
    </edge>
    <edge id=":1160646219_3" function="internal">
        <lane id=":1160646219_3_0" index="0" disallow="tram rail_urban rail rail_electric rail_fast ship container cable_car subway aircraft wheelchair scooter drone" speed="22.22" length="13.76" shape="281.65,176.91 282.30,180.40 282.99,183.65 283.79,186.88 284.74,190.31"/>
    </edge>
    <edge id=":1160646219_4" function="internal">
        <lane id=":1160646219_4_0" index="0" disallow="tram rail_urban rail rail_electric rail_fast ship container cable_car subway aircraft wheelchair scooter drone" speed="8.24" length="3.85" shape="281.65,176.91 281.75,180.62 281.70,180.74"/>
    </edge>
    <edge id=":1160646219_5" function="internal">
        <lane id=":1160646219_5_0" index="0" disallow="tram rail_urban rail rail_electric rail_fast ship container cable_car subway aircraft wheelchair scooter drone" speed="3.65" length="1.44" shape="281.65,176.91 281.07,178.22"/>
    </edge>
    <edge id=":1160646219_10" function="internal">
        <lane id=":1160646219_10_0" index="0" disallow="tram rail_urban rail rail_electric rail_fast ship container cable_car subway aircraft wheelchair scooter drone" speed="8.24" length="10.11" shape="281.70,180.74 280.64,183.61 278.32,185.85 274.80,187.35"/>
    </edge>
    <edge id=":1160646219_11" function="internal">
        <lane id=":1160646219_11_0" index="0" disallow="tram rail_urban rail rail_electric rail_fast ship container cable_car subway aircraft wheelchair scooter drone" speed="3.65" length="3.23" shape="281.07,178.22 280.35,178.75 279.49,178.49 278.50,177.44"/>
    </edge>
    <edge id=":1160646219_6" function="internal">
        <lane id=":1160646219_6_0" index="0" disallow="tram rail_urban rail rail_electric rail_fast ship container cable_car subway aircraft wheelchair scooter drone" speed="6.79" length="9.16" shape="273.95,184.27 276.28,183.28 277.82,181.81 278.56,179.87 278.50,177.44"/>
    </edge>
    <edge id=":1160646219_7" function="internal">
        <lane id=":1160646219_7_0" index="0" disallow="tram rail_urban rail rail_electric rail_fast ship container cable_car subway aircraft wheelchair scooter drone" speed="8.00" length="14.06" shape="273.95,184.27 277.76,183.78 280.84,184.62 283.16,186.80 284.74,190.31"/>
    </edge>
    <edge id=":1160646219_8" function="internal">
        <lane id=":1160646219_8_0" index="0" disallow="tram rail_urban rail rail_electric rail_fast ship container cable_car subway aircraft wheelchair scooter drone" speed="3.65" length="4.67" shape="273.95,184.27 275.32,184.72 275.92,185.39 275.74,186.26 274.80,187.35"/>
    </edge>
    <edge id=":1160646220_0" function="internal">
        <lane id=":1160646220_0_0" index="0" disallow="tram rail_urban rail rail_electric rail_fast ship container cable_car subway aircraft wheelchair scooter drone" speed="6.79" length="9.51" shape="118.21,233.47 117.01,231.03 115.40,229.51 113.37,228.89 110.93,229.19"/>
    </edge>
    <edge id=":1160646220_1" function="internal">
        <lane id=":1160646220_1_0" index="0" disallow="tram rail_urban rail rail_electric rail_fast ship container cable_car subway aircraft wheelchair scooter drone" speed="6.77" length="10.78" shape="118.21,233.47 117.11,229.51 116.87,226.58 117.48,224.66 118.94,223.75"/>
    </edge>
    <edge id=":1160646220_2" function="internal">
        <lane id=":1160646220_2_0" index="0" disallow="tram rail_urban rail rail_electric rail_fast ship container cable_car subway aircraft wheelchair scooter drone" speed="3.65" length="4.67" shape="118.21,233.47 118.58,232.07 119.20,231.43 120.09,231.55 121.23,232.43"/>
    </edge>
    <edge id=":1160646220_3" function="internal">
        <lane id=":1160646220_3_0" index="0" disallow="tram rail_urban rail rail_electric rail_fast ship container cable_car subway aircraft wheelchair scooter drone" speed="5.21" length="5.92" shape="119.60,226.89 119.40,227.71 119.93,229.38 120.71,231.20 121.23,232.43"/>
    </edge>
    <edge id=":1160646220_4" function="internal">
        <lane id=":1160646220_4_0" index="0" disallow="tram rail_urban rail rail_electric rail_fast ship container cable_car subway aircraft wheelchair scooter drone" speed="13.89" length="8.97" shape="119.60,226.89 110.93,229.19"/>
    </edge>
    <edge id=":1160646220_5" function="internal">
        <lane id=":1160646220_5_0" index="0" disallow="tram rail_urban rail rail_electric rail_fast ship container cable_car subway aircraft wheelchair scooter drone" speed="3.65" length="1.44" shape="119.60,226.89 118.26,226.35"/>
    </edge>
    <edge id=":1160646220_9" function="internal">
        <lane id=":1160646220_9_0" index="0" disallow="tram rail_urban rail rail_electric rail_fast ship container cable_car subway aircraft wheelchair scooter drone" speed="3.65" length="3.23" shape="118.26,226.35 117.70,225.65 117.93,224.78 118.94,223.75"/>
    </edge>
    <edge id=":1160646220_6" function="internal">
        <lane id=":1160646220_6_0" index="0" disallow="tram rail_urban rail rail_electric rail_fast ship container cable_car subway aircraft wheelchair scooter drone" speed="13.89" length="9.19" shape="110.06,226.11 118.94,223.75"/>
    </edge>
    <edge id=":1160646220_7" function="internal">
        <lane id=":1160646220_7_0" index="0" disallow="tram rail_urban rail rail_electric rail_fast ship container cable_car subway aircraft wheelchair scooter drone" speed="8.24" length="4.06" shape="110.06,226.11 113.84,225.63 114.08,225.70"/>
    </edge>
    <edge id=":1160646220_8" function="internal">
        <lane id=":1160646220_8_0" index="0" disallow="tram rail_urban rail rail_electric rail_fast ship container cable_car subway aircraft wheelchair scooter drone" speed="3.65" length="1.44" shape="110.06,226.11 111.43,226.55"/>
    </edge>
    <edge id=":1160646220_10" function="internal">
        <lane id=":1160646220_10_0" index="0" disallow="tram rail_urban rail rail_electric rail_fast ship container cable_car subway aircraft wheelchair scooter drone" speed="8.24" length="10.41" shape="114.08,225.70 116.97,226.53 119.43,228.80 121.23,232.43"/>
    </edge>
    <edge id=":1160646220_11" function="internal">
        <lane id=":1160646220_11_0" index="0" disallow="tram rail_urban rail rail_electric rail_fast ship container cable_car subway aircraft wheelchair scooter drone" speed="3.65" length="3.23" shape="111.43,226.55 112.03,227.21 111.87,228.09 110.93,229.19"/>
    </edge>
    <edge id=":1160646225_0" function="internal">
        <lane id=":1160646225_0_0" index="0" disallow="tram rail_urban rail rail_electric rail_fast ship container cable_car subway aircraft wheelchair scooter drone" speed="6.43" length="9.07" shape="300.64,259.35 299.84,257.00 298.47,255.50 296.53,254.86 294.03,255.07"/>
    </edge>
    <edge id=":1160646225_1" function="internal">
        <lane id=":1160646225_1_0" index="0" disallow="tram rail_urban rail rail_electric rail_fast ship container cable_car subway aircraft wheelchair scooter drone" speed="22.22" length="14.55" shape="300.64,259.35 299.92,255.75 299.13,252.24 298.25,248.75 297.27,245.21"/>
    </edge>
    <edge id=":1160646225_2" function="internal">
        <lane id=":1160646225_2_0" index="0" disallow="tram rail_urban rail rail_electric rail_fast ship container cable_car subway aircraft wheelchair scooter drone" speed="3.65" length="1.44" shape="300.64,259.35 301.21,258.03"/>
    </edge>
    <edge id=":1160646225_9" function="internal">
        <lane id=":1160646225_9_0" index="0" disallow="tram rail_urban rail rail_electric rail_fast ship container cable_car subway aircraft wheelchair scooter drone" speed="3.65" length="3.23" shape="301.21,258.03 301.92,257.49 302.78,257.73 303.79,258.76"/>
    </edge>
    <edge id=":1160646225_3" function="internal">
        <lane id=":1160646225_3_0" index="0" disallow="tram rail_urban rail rail_electric rail_fast ship container cable_car subway aircraft wheelchair scooter drone" speed="22.22" length="14.85" shape="300.35,244.32 301.34,247.91 302.24,251.50 303.06,255.11 303.79,258.76"/>
    </edge>
    <edge id=":1160646225_4" function="internal">
        <lane id=":1160646225_4_0" index="0" disallow="tram rail_urban rail rail_electric rail_fast ship container cable_car subway aircraft wheelchair scooter drone" speed="7.91" length="4.21" shape="300.35,244.32 300.90,248.26 300.83,248.48"/>
    </edge>
    <edge id=":1160646225_5" function="internal">
        <lane id=":1160646225_5_0" index="0" disallow="tram rail_urban rail rail_electric rail_fast ship container cable_car subway aircraft wheelchair scooter drone" speed="3.65" length="1.44" shape="300.35,244.32 299.91,245.69"/>
    </edge>
    <edge id=":1160646225_10" function="internal">
        <lane id=":1160646225_10_0" index="0" disallow="tram rail_urban rail rail_electric rail_fast ship container cable_car subway aircraft wheelchair scooter drone" speed="7.91" length="10.20" shape="300.83,248.48 300.03,251.36 297.74,253.63 294.03,255.07"/>
    </edge>
    <edge id=":1160646225_11" function="internal">
        <lane id=":1160646225_11_0" index="0" disallow="tram rail_urban rail rail_electric rail_fast ship container cable_car subway aircraft wheelchair scooter drone" speed="3.65" length="3.23" shape="299.91,245.69 299.25,246.30 298.37,246.14 297.27,245.21"/>
    </edge>
    <edge id=":1160646225_6" function="internal">
        <lane id=":1160646225_6_0" index="0" disallow="tram rail_urban rail rail_electric rail_fast ship container cable_car subway aircraft wheelchair scooter drone" speed="6.39" length="9.04" shape="293.31,251.95 295.63,251.05 297.07,249.63 297.62,247.68 297.27,245.21"/>
    </edge>
    <edge id=":1160646225_7" function="internal">
        <lane id=":1160646225_7_0" index="0" disallow="tram rail_urban rail rail_electric rail_fast ship container cable_car subway aircraft wheelchair scooter drone" speed="7.94" length="14.39" shape="293.31,251.95 297.27,251.62 300.33,252.64 302.51,255.02 303.79,258.76"/>
    </edge>
    <edge id=":1160646225_8" function="internal">
        <lane id=":1160646225_8_0" index="0" disallow="tram rail_urban rail rail_electric rail_fast ship container cable_car subway aircraft wheelchair scooter drone" speed="3.65" length="4.67" shape="293.31,251.95 294.66,252.46 295.23,253.15 295.02,254.02 294.03,255.07"/>
    </edge>
    <edge id=":1160646235_0" function="internal">
        <lane id=":1160646235_0_0" index="0" disallow="tram rail_urban rail rail_electric rail_fast ship container cable_car subway aircraft wheelchair scooter drone" speed="6.73" length="9.21" shape="164.04,223.66 163.04,221.32 161.55,219.80 159.59,219.11 157.14,219.25"/>
    </edge>
    <edge id=":1160646235_1" function="internal">
        <lane id=":1160646235_1_0" index="0" disallow="tram rail_urban rail rail_electric rail_fast ship container cable_car subway aircraft wheelchair scooter drone" speed="8.00" length="14.20" shape="164.04,223.66 163.55,219.80 164.40,216.71 166.62,214.39 170.18,212.83"/>
    </edge>
    <edge id=":1160646235_2" function="internal">
        <lane id=":1160646235_2_0" index="0" disallow="tram rail_urban rail rail_electric rail_fast ship container cable_car subway aircraft wheelchair scooter drone" speed="3.65" length="4.67" shape="164.04,223.66 164.50,222.29 165.16,221.69 166.04,221.86 167.13,222.81"/>
    </edge>
    <edge id=":1160646235_3" function="internal">
        <lane id=":1160646235_3_0" index="0" disallow="tram rail_urban rail rail_electric rail_fast ship container cable_car subway aircraft wheelchair scooter drone" speed="6.50" length="9.03" shape="171.03,215.92 168.76,216.91 167.36,218.38 166.81,220.35 167.13,222.81"/>
    </edge>
    <edge id=":1160646235_4" function="internal">
        <lane id=":1160646235_4_0" index="0" disallow="tram rail_urban rail rail_electric rail_fast ship container cable_car subway aircraft wheelchair scooter drone" speed="13.89" length="14.29" shape="171.03,215.92 157.14,219.25"/>
    </edge>
    <edge id=":1160646235_5" function="internal">
        <lane id=":1160646235_5_0" index="0" disallow="tram rail_urban rail rail_electric rail_fast ship container cable_car subway aircraft wheelchair scooter drone" speed="3.65" length="1.44" shape="171.03,215.92 169.66,215.47"/>
    </edge>
    <edge id=":1160646235_9" function="internal">
        <lane id=":1160646235_9_0" index="0" disallow="tram rail_urban rail rail_electric rail_fast ship container cable_car subway aircraft wheelchair scooter drone" speed="3.65" length="3.23" shape="169.66,215.47 169.07,214.80 169.24,213.92 170.18,212.83"/>
    </edge>
    <edge id=":1160646235_6" function="internal">
        <lane id=":1160646235_6_0" index="0" disallow="tram rail_urban rail rail_electric rail_fast ship container cable_car subway aircraft wheelchair scooter drone" speed="13.89" length="14.07" shape="156.50,216.11 170.18,212.83"/>
    </edge>
    <edge id=":1160646235_7" function="internal">
        <lane id=":1160646235_7_0" index="0" disallow="tram rail_urban rail rail_electric rail_fast ship container cable_car subway aircraft wheelchair scooter drone" speed="8.19" length="3.78" shape="156.50,216.11 160.28,215.90"/>
    </edge>
    <edge id=":1160646235_8" function="internal">
        <lane id=":1160646235_8_0" index="0" disallow="tram rail_urban rail rail_electric rail_fast ship container cable_car subway aircraft wheelchair scooter drone" speed="3.65" length="1.44" shape="156.50,216.11 157.83,216.66"/>
    </edge>
    <edge id=":1160646235_10" function="internal">
        <lane id=":1160646235_10_0" index="0" disallow="tram rail_urban rail rail_electric rail_fast ship container cable_car subway aircraft wheelchair scooter drone" speed="8.19" length="10.33" shape="160.28,215.90 163.31,216.94 165.59,219.24 167.13,222.81"/>
    </edge>
    <edge id=":1160646235_11" function="internal">
        <lane id=":1160646235_11_0" index="0" disallow="tram rail_urban rail rail_electric rail_fast ship container cable_car subway aircraft wheelchair scooter drone" speed="3.65" length="3.23" shape="157.83,216.66 158.39,217.36 158.15,218.22 157.14,219.25"/>
    </edge>
    <edge id=":1160646236_0" function="internal">
        <lane id=":1160646236_0_0" index="0" disallow="tram rail_urban rail rail_electric rail_fast ship container cable_car subway aircraft wheelchair scooter drone" speed="13.89" length="14.73" shape="167.17,396.99 163.01,382.87"/>
    </edge>
    <edge id=":1160646236_1" function="internal">
        <lane id=":1160646236_1_0" index="0" disallow="tram rail_urban rail rail_electric rail_fast ship container cable_car subway aircraft wheelchair scooter drone" speed="8.15" length="4.25" shape="167.17,396.99 166.51,393.20 166.60,392.81"/>
    </edge>
    <edge id=":1160646236_2" function="internal">