<?xml version="1.0" encoding="UTF-8"?>

<!-- generated on 2025-05-04 13:16:34.435493 by randomTrips.py v1_22_0+0002-63e50f52594
<configuration>
    <net-file value="bangalore.net.xml"/>
    <output-trip-file value="bangalore.rou.xml"/>
    <validate value="True"/>
    <end value="300.0"/>
    <period value="5.0"/>
</configuration>
-->

<!-- generated on 2025-05-04 13:16:34 by Eclipse SUMO duarouter Version 1.22.0
<duarouterConfiguration xmlns:xsi="http://www.w3.org/2001/XMLSchema-instance" xsi:noNamespaceSchemaLocation="http://sumo.dlr.de/xsd/duarouterConfiguration.xsd">

    <input>
        <net-file value="bangalore.net.xml"/>
        <route-files value="bangalore.rou.xml"/>
    </input>

    <output>
        <output-file value="routes.rou.xml"/>
        <alternatives-output value="NUL"/>
    </output>

    <time>
        <begin value="0.0"/>
        <end value="300.0"/>
    </time>

    <report>
        <no-warnings value="true"/>
        <ignore-errors value="true"/>
        <no-step-log value="true"/>
    </report>

</duarouterConfiguration>
-->

<routes xmlns:xsi="http://www.w3.org/2001/XMLSchema-instance" xsi:noNamespaceSchemaLocation="http://sumo.dlr.de/xsd/routes_file.xsd">
    <vehicle id="0" depart="0.00">
        <route edges="100402308#1 100402308#2 100402308#3 -1185273022#2 -100402305#1"/>
    </vehicle>
    <vehicle id="1" depart="5.00">
        <route edges="-1155810076#1 -1155810076#0 -551796315#0 -100402309"/>
    </vehicle>
    <vehicle id="2" depart="10.00">
        <route edges="100402309 1185273022#0 1185273022#1 1185273022#2 100402308#4"/>
    </vehicle>
    <vehicle id="3" depart="15.00">
        <route edges="551796312 -551796315#1 -551796315#0 1185273022#0 1185273022#1 1185273022#2 -100402308#3 -100402308#2 -100402308#1 -100402307#2"/>
    </vehicle>
    <vehicle id="4" depart="20.00">
        <route edges="-551912151 100402308#3 -1185273022#2 -100402305#1"/>
    </vehicle>
    <vehicle id="5" depart="25.00">
        <route edges="-100402308#6 -100402308#5 -100402308#4 -100402308#3 -100402308#2 100402307#0 100402305#0"/>
    </vehicle>
    <vehicle id="6" depart="30.00">
        <route edges="-100402305#1 -551912151 100402308#3 100402308#4 -100402308#4"/>
    </vehicle>
    <vehicle id="7" depart="35.00">
        <route edges="100402308#2 -100402308#2 100402307#0"/>
    </vehicle>
    <vehicle id="8" depart="40.00">
        <route edges="-100402309 100402307#2"/>
    </vehicle>
    <vehicle id="9" depart="45.00">
        <route edges="1185273022#0 1185273022#1 -100402305#1 -100402305#0"/>
    </vehicle>
    <vehicle id="10" depart="50.00">
        <route edges="1185273022#0 1185273022#1 1185273022#2 100402308#4 100402308#5"/>
    </vehicle>
    <vehicle id="11" depart="55.00">
        <route edges="-551796312 -1155810076#0 -551796315#0 1185273022#0 1185273022#1 1185273022#2 -100402308#3 -100402308#2"/>
    </vehicle>
    <vehicle id="12" depart="60.00">
        <route edges="551912151 100402305#1 -1185273022#1"/>
    </vehicle>
    <vehicle id="13" depart="65.00">
        <route edges="-100402307#2"/>
    </vehicle>
    <vehicle id="14" depart="70.00">
        <route edges="1185273022#2 -100402308#3 -100402308#2 -100402308#1 100402308#1"/>
    </vehicle>
    <vehicle id="15" depart="75.00">
        <route edges="1185273022#0 1185273022#1 -100402305#1 -100402305#0 100402307#1 100402309"/>
    </vehicle>
    <vehicle id="16" depart="80.00">
        <route edges="100402305#1 1185273022#2 100402308#4 100402308#5 551912152#0 551912152#1"/>
    </vehicle>
    <vehicle id="17" depart="85.00">
        <route edges="-551796315#0 1185273022#0 1185273022#1 1185273022#2 -100402308#3 -100402308#2 100402307#0"/>
    </vehicle>
    <vehicle id="18" depart="90.00">
        <route edges="1185273022#1 1185273022#2 -100402308#3 -100402308#2 -100402308#1 100402308#1"/>
    </vehicle>
    <vehicle id="19" depart="95.00">
        <route edges="1185273023 1185273022#1 -100402305#1 -100402305#0 100402307#1"/>
    </vehicle>
    <vehicle id="20" depart="100.00">
        <route edges="100402308#5 -100402308#5 -100402308#4 -1185273022#2 -100402305#1 -100402305#0 -100402307#0"/>
    </vehicle>
    <vehicle id="21" depart="105.00">
        <route edges="-100402309 -100402307#1 100402305#0 100402305#1 -1185273022#1 -1185273022#0 551796315#0 1155810076#0 -1155810076#0"/>
    </vehicle>
    <vehicle id="22" depart="110.00">
        <route edges="-100402307#1 100402305#0 100402305#1 -1185273022#1 -1185273022#0 -100402309"/>
    </vehicle>
    <vehicle id="23" depart="115.00">
        <route edges="-100402308#1 100402308#1 100402308#2 100402308#3 100402308#4 100402308#5 551912152#0 -1102803979"/>
    </vehicle>
    <vehicle id="24" depart="120.00">
        <route edges="100402308#1 100402308#2 100402308#3 -1185273022#2 -1185273022#1 -1185273023"/>
    </vehicle>
    <vehicle id="25" depart="125.00">
        <route edges="-551796315#0 1185273022#0 1185273022#1 1185273022#2 100402308#4 100402308#5 -100402308#5"/>
    </vehicle>
    <vehicle id="26" depart="130.00">
        <route edges="-1155810076#1 -1155810076#0 -551796315#0 1185273022#0 1185273022#1 1185273022#2 -100402308#3 551912151"/>
    </vehicle>
    <vehicle id="27" depart="135.00">
        <route edges="100402308#2 -100402308#2 -100402308#1 100402308#1"/>
    </vehicle>
    <vehicle id="28" depart="140.00">
        <route edges="-100402308#4 -1185273022#2 -100402305#1 -100402305#0 100402307#1 100402309"/>
    </vehicle>
    <vehicle id="29" depart="145.00">
        <route edges="-100402308#4 -1185273022#2 -1185273022#1 -1185273023"/>
    </vehicle>
    <vehicle id="30" depart="150.00">
        <route edges="551912152#1 995445939 -995445939 -551912152#1 -551912152#0 -100402308#5 -100402308#4 -100402308#3 -100402308#2 100402308#2"/>
    </vehicle>
    <vehicle id="31" depart="155.00">
        <route edges="100402307#0 -100402307#0 100402308#2 100402308#3 100402308#4 100402308#5"/>
    </vehicle>
    <vehicle id="32" depart="160.00">
        <route edges="1185273022#2 -1185273022#2 -1185273022#1 -1185273022#0 551796315#0 1155810076#0 1155810076#1"/>
    </vehicle>
    <vehicle id="33" depart="165.00">
        <route edges="-100402309 -100402307#1 100402305#0 100402305#1 -100402305#1"/>
    </vehicle>
    <vehicle id="34" depart="170.00">
        <route edges="-1185273022#1 1185273022#1 1185273022#2 100402308#4 100402308#5 551912152#0 -1102803979"/>
    </vehicle>
    <vehicle id="35" depart="175.00">
        <route edges="-100402308#6 551912152#0"/>
    </vehicle>
    <vehicle id="36" depart="180.00">
        <route edges="1185273023 -1185273022#0"/>
    </vehicle>
    <vehicle id="37" depart="185.00">
        <route edges="100402308#2 100402308#3 -1185273022#2 -1185273022#1 -1185273022#0 551796315#0 551796315#1 -551796312"/>
    </vehicle>
    <vehicle id="38" depart="190.00">
        <route edges="551796315#0 -551796315#0 1185273022#0 1185273022#1 -100402305#1 -551912151"/>
    </vehicle>
    <vehicle id="39" depart="195.00">
        <route edges="-1155810076#1 -1155810076#0 -551796315#0 1185273022#0 1185273022#1 1185273022#2 100402308#4 -1102803977"/>
    </vehicle>
    <vehicle id="40" depart="200.00">
        <route edges="100402307#1 100402309 1185273022#0 1185273022#1 1185273022#2 100402308#4 100402308#5 551912152#0 -1102803979"/>
    </vehicle>
    <vehicle id="41" depart="205.00">
        <route edges="100402307#2 100402308#1 100402308#2 100402308#3 -1185273022#2 -1185273022#1 -1185273022#0 551796315#0 551796315#1"/>
    </vehicle>
    <vehicle id="42" depart="210.00">
        <route edges="-551796315#1 -551796315#0 1185273022#0 1185273022#1 1185273022#2 100402308#4 100402308#5 -100402308#5"/>
    </vehicle>
    <vehicle id="43" depart="215.00">
        <route edges="551912152#1 995445939 -995445939 -551912152#1 -551912152#0 -100402308#5 -100402308#4 -100402308#3 -100402308#2 100402307#0 100402305#0"/>
    </vehicle>
    <vehicle id="44" depart="220.00">
        <route edges="-100402307#2 -100402307#1 -100402307#0"/>
    </vehicle>
    <vehicle id="45" depart="225.00">
        <route edges="-100402308#1 100402308#1 100402308#2"/>
    </vehicle>
    <vehicle id="46" depart="230.00">
        <route edges="1155810076#0 551796312 -551796315#1"/>
    </vehicle>
    <vehicle id="47" depart="235.00">
        <route edges="-100402307#1 100402305#0 100402305#1 -1185273022#1 -1185273022#0 551796315#0 551796315#1 -551796312"/>
    </vehicle>
    <vehicle id="48" depart="240.00">
        <route edges="551912152#1 995445939 -995445939 -551912152#1 -551912152#0 -100402308#5 -100402308#4 -100402308#3 551912151 100402305#1"/>
    </vehicle>
    <vehicle id="49" depart="245.00">
        <route edges="551912152#0 -551912152#0 -100402308#5 -100402308#4 -1185273022#2 -1185273022#1 -1185273022#0 551796315#0"/>
    </vehicle>
    <vehicle id="50" depart="250.00">
        <route edges="-100402305#0 100402307#1 100402309"/>
    </vehicle>
    <vehicle id="51" depart="255.00">
        <route edges="100402308#4 -100402308#4 -100402308#3 551912151 100402305#1"/>
    </vehicle>
    <vehicle id="52" depart="260.00">
        <route edges="-1155810076#1 -1155810076#0 -551796315#0 1185273022#0 1185273022#1 -100402305#1 -551912151 100402308#3"/>
    </vehicle>
    <vehicle id="53" depart="265.00">
        <route edges="-100402308#1 100402308#1 100402308#2 100402308#3 -1185273022#2 -1185273022#1 -1185273022#0 551796315#0 1155810076#0 551796312 -551796315#1"/>
    </vehicle>
    <vehicle id="54" depart="270.00">
        <route edges="-551912152#0 551912152#0"/>
    </vehicle>
    <vehicle id="55" depart="275.00">
        <route edges="1185273023 1185273022#1 1185273022#2 100402308#4 100402308#5 551912152#0 -1102803979"/>
    </vehicle>
    <vehicle id="56" depart="280.00">
        <route edges="100402305#0 100402305#1 1185273022#2 -100402308#3"/>
    </vehicle>
    <vehicle id="57" depart="285.00">
        <route edges="551796315#0"/>
    </vehicle>
    <vehicle id="58" depart="290.00">
        <route edges="-1185273022#0 1185273022#0 1185273022#1 -100402305#1 -100402305#0 -100402307#0 100402308#2"/>
    </vehicle>
    <vehicle id="59" depart="295.00">
        <route edges="100402308#0 100402308#1 100402308#2 -100402308#2"/>
    </vehicle>
</routes>
